DATABASE C:\Program Files (x86)\USGS\Phreeqc Interactive 3.4.0-12927\database\pitzer.dat
SOLUTION 0 #TDS=314 ppthousand [before fudging]
	pH 6.8  #Kloppman et al., 2001
	units ppm
	temperature 33.8 #Wilson and Long, 1993
	Mn 9.780    #Peterman et al., 2017
	B  5.54     #Kloppman et al., 2001
	Cl 198765   #Cl + Br, Kloppman et al., 2001; increased from 183065
	Na 121000   #Kloppman et al., 2001
	S(6) 5870   #Kloppman et al., 2001
	Ca 1270     #Kloppman et al., 2001
	K 1290 	    #Kloppman et al., 2001
	Mg 1340     #Kloppman et al., 2001
	Sr 24.19    #Kloppman et al., 2001
	Ba 17500    #Peterman et al., 2017
	Li 0.23     #Kloppman et al., 2001
	-water 1.321397889 	
	
SOLUTION 1-25 #3.7% salinity water, including the adjustments of [Na] and [Cl] to balance the %-error of the values
        units            ppm
        temp             25.0
        pH               7.0     charge
        pe               12.5   
	Mn 0.001   
	Fe 0.001
	B 0.001     
	Cl 1000.00   
	Na 999.00   
	S(6) 0.001  
	Ca 0.001	   
	K 0.001 	   
	Mg 0.001    
	Sr 0.001    
	Ba 0.001    
	Li 0.001   
	-water 1.321397889 	

EQUILIBRIUM_PHASES 14-25
	  CO2(g) -3.5 100
	  Anhydrite 0 0; Aragonite 0 0; Artinite 0 0; Bischofite 0 0; Bloedite 0 0; Boric_acid,s 0 0; Calcite 0 0; Carnallite 0 0; Dolomite 0 0; Huntite 0 0; Magnesite 0 0; MgCl2_2H2O 0 0; NaB5O8:5H2O 0 0; Pirssonite 0 0; Barite 0 0; Brucite 0 0; Celestite 0 0; Glauberite 0 0; Goergeyite 0 0; Mirabilite 0 0; Gypsum 0 0; Halite 0 0; Sylvite 0 0; Teepleite 0 0; Thenardite 0 0; 
	
SOLUTION_SPECIES  #Maintain stability of the code during the REACTION block 
H2O + 0.01e- = H2O-0.01
log_k -9.0
 
REACTION 14
	 H2O -1;  0.708831358   #Determined with reference to the "2020-07-15_APF_Calculations for a physically accurate simulation" excel file.
REACTION 15
	 H2O -1;  0.695262611 	#Determined with reference to the "2020-07-15_APF_Calculations for a physically accurate simulation" excel file.
REACTION 16
	 H2O -1;  0.682079778   #Determined with reference to the "2020-07-15_APF_Calculations for a physically accurate simulation" excel file.
REACTION 17
	 H2O -1;  0.669268362    #Determined with reference to the "2020-07-15_APF_Calculations for a physically accurate simulation" excel file.
REACTION 18
	 H2O -1;  0.656814541   #Determined with reference to the "2020-07-15_APF_Calculations for a physically accurate simulation" excel file.
REACTION 19
	 H2O -1;  0.644705128   #Determined with reference to the "2020-07-15_APF_Calculations for a physically accurate simulation" excel file.
REACTION 20
	 H2O -1;  0.632927541   #Determined with reference to the "2020-07-15_APF_Calculations for a physically accurate simulation" excel file.
REACTION 21
	 H2O -1;  0.621469765   #Determined with reference to the "2020-07-15_APF_Calculations for a physically accurate simulation" excel file.
REACTION 22
	 H2O -1;  0.610320325   #Determined with reference to the "2020-07-15_APF_Calculations for a physically accurate simulation" excel file.
REACTION 23
	 H2O -1;  0.599468257   #Determined with reference to the "2020-07-15_APF_Calculations for a physically accurate simulation" excel file.
REACTION 24
	 H2O -1;  0.588903078   #Determined with reference to the "2020-07-15_APF_Calculations for a physically accurate simulation" excel file.
REACTION 25
	 H2O -1;  0.578614764   #Determined with reference to the "2020-07-15_APF_Calculations for a physically accurate simulation" excel file.

SELECTED_OUTPUT
        -file   German Basin_BW30-400_PE=100%_1.1
        -reaction true 
	-temperature   true
	-ionic_strength true
	-saturation_indices Anhydrite Aragonite Artinite Barite Bischofite Bloedite Boric_acid,s Brucite Calcite Carnallite Celestite Dolomite Glauberite Goergeyite Gypsum Huntite Halite Magnesite MgCl2_2H2O Mirabilite NaB5O8:5H2O Pirssonite Sylvite Teepleite Thenardite
	-totals B Mn Fe Na S(6) Ca K Mg Sr Ba Li Na Cl 
	-pH true
	-alkalinity true
	-charge_balance true
	-equilibrium_phases Anhydrite Aragonite Artinite Barite Bischofite Bloedite Boric_acid,s Brucite Calcite Carnallite Celestite Dolomite Glauberite Goergeyite Gypsum Huntite Halite Magnesite MgCl2_2H2O Mirabilite NaB5O8:5H2O Pirssonite Sylvite Teepleite Thenardite
	-solution
	-time               true
	-distance           true
	-simulation         true
	-step
	-high_precision true
	-water


 TRANSPORT 
        -cells           12		
	-shifts          24		
        -lengths      0.084667   	
        -time_step    0.3000636	   	#Satisfy the Courant condition for lengths and the implied feed velocity = 0.28216239 m/s
	-initial_time 	  0	
        -flow_direction  forward
        -boundary_conditions   flux  flux
        -diffusion_coefficient 0.0e-9  
        -dispersivities  0 
        -stagnant      1      6.8e2            0.9               0.1
	#stagnant layer^  ^exchange factor  ^fraction mobile   ^fraction immobile
	-punch_cells     14-25
        -punch_frequency 24

END